<?xml version='1.0' encoding='utf-8'?>
<febio_spec version="3.0">
    <Module type="solid"></Module>
    <Globals>
        <Constants>
            <T>0</T>
            <R>0</R>
            <Fc>0</Fc>
        </Constants>
    </Globals>
    <Material>
        <material id="1" name="bottom_cube_material" type="rigid body">
            <density>1</density>
            <center_of_mass>0,0,-2.5</center_of_mass>
        </material>
        <material id="2" name="bottom_layer_material" type="Fung orthotropic">
            <density>0</density>
            <E1>125</E1>
            <E2>27.5</E2>
            <E3>27.5</E3>
            <G12>2</G12>
            <G23>12.5</G23>
            <G31>2</G31>
            <v12>0.1</v12>
            <v23>0.33</v23>
            <v31>0.1</v31>
            <c>1</c>
            <k>10</k>
        </material>
        <material id="3" name="top_layer_material" type="Fung orthotropic">
            <density>0</density>
            <E1>125</E1>
            <E2>27.5</E2>
            <E3>27.5</E3>
            <G12>2</G12>
            <G23>12.5</G23>
            <G31>2</G31>
            <v12>0.1</v12>
            <v23>0.33</v23>
            <v31>0.1</v31>
            <c>1</c>
            <k>10</k>
        </material>
        <material id="4" name="top_cube_material" type="rigid body">
            <density>1</density>
            <center_of_mass>0,0,2</center_of_mass>
        </material>
    </Material>
    <Mesh>
        <Nodes name="bottom_cube_nodes">
            <node id="1">-2.0,-2.0,-1.5</node>
            <node id="2">-2.0,2.0,-3.5</node>
            <node id="3">-2.0,-2.0,-3.5</node>
            <node id="4">-2.0,2.0,-1.5</node>
            <node id="5">2.0,2.0,-3.5</node>
            <node id="6">2.0,2.0,-1.5</node>
            <node id="7">2.0,-2.0,-3.5</node>
            <node id="8">2.0,-2.0,-1.5</node>
        </Nodes>
        <Elements type="tri3" mat="1" name="bottom_cube_elements">
            <elem id="1">1,2,3</elem>
            <elem id="2">4,5,2</elem>
            <elem id="3">6,7,5</elem>
            <elem id="4">8,3,7</elem>
            <elem id="5">5,3,2</elem>
            <elem id="6">4,8,6</elem>
            <elem id="7">1,4,2</elem>
            <elem id="8">4,6,5</elem>
            <elem id="9">6,8,7</elem>
            <elem id="10">8,1,3</elem>
            <elem id="11">5,7,3</elem>
            <elem id="12">4,1,8</elem>
        </Elements>
        <Nodes name="bottom_layer_nodes">
            <node id="9">-2.0,-2.0,-1.5</node>
            <node id="10">2.0,-2.0,-1.5</node>
            <node id="11">2.0,2.0,-1.5</node>
            <node id="12">-2.0,2.0,-1.5</node>
            <node id="13">-2.0,-2.0,-1.0</node>
            <node id="14">2.0,-2.0,-1.0</node>
            <node id="15">2.0,2.0,-1.0</node>
            <node id="16">-2.0,2.0,-1.0</node>
            <node id="17">0.0,-2.0,-1.5</node>
            <node id="18">-2.0,0.0,-1.5</node>
            <node id="19">-2.0,-2.0,-1.25</node>
            <node id="20">2.0,0.0,-1.5</node>
            <node id="21">2.0,-2.0,-1.25</node>
            <node id="22">0.0,2.0,-1.5</node>
            <node id="23">2.0,2.0,-1.25</node>
            <node id="24">-2.0,2.0,-1.25</node>
            <node id="25">0.0,-2.0,-1.0</node>
            <node id="26">-2.0,0.0,-1.0</node>
            <node id="27">2.0,0.0,-1.0</node>
            <node id="28">0.0,2.0,-1.0</node>
<!-- ... 105 like lines cut -->
        </Nodes>
        <Elements type="hex8" mat="2" name="bottom_layer_elements">
            <elem id="13">9,36,48,37,38,49,54,50</elem>
            <elem id="14">38,49,54,50,19,44,53,45</elem>
            <elem id="15">36,17,39,48,49,40,51,54</elem>
            <elem id="16">49,40,51,54,44,30,46,53</elem>
            <elem id="17">37,48,41,18,50,54,52,43</elem>
            <elem id="18">50,54,52,43,45,53,47,31</elem>
            <elem id="19">48,39,29,41,54,51,42,52</elem>
            <elem id="20">54,51,42,52,53,46,35,47</elem>
            <elem id="21">19,44,53,45,55,63,68,64</elem>
            <elem id="22">55,63,68,64,13,59,67,60</elem>
            <elem id="23">44,30,46,53,63,56,65,68</elem>
            <elem id="24">63,56,65,68,59,25,61,67</elem>
            <elem id="25">45,53,47,31,64,68,66,58</elem>
            <elem id="26">64,68,66,58,60,67,62,26</elem>
            <elem id="27">53,46,35,47,68,65,57,66</elem>
            <elem id="28">68,65,57,66,67,61,34,62</elem>
            <elem id="29">17,69,77,39,40,78,82,51</elem>
            <elem id="30">40,78,82,51,30,74,81,46</elem>
            <elem id="31">69,10,70,77,78,71,79,82</elem>
            <elem id="32">78,71,79,82,74,21,75,81</elem>
<!-- ... 44 like lines cut -->
        </Elements>
        <Nodes name="top_layer_nodes">
            <node id="134">-1.0,-1.0,-0.5</node>
            <node id="135">1.0,-1.0,-0.5</node>
            <node id="136">1.0,1.0,-0.5</node>
            <node id="137">-1.0,1.0,-0.5</node>
            <node id="138">-1.0,-1.0,0.0</node>
            <node id="139">1.0,-1.0,0.0</node>
            <node id="140">1.0,1.0,0.0</node>
            <node id="141">-1.0,1.0,0.0</node>
            <node id="142">0.0,-1.0,-0.5</node>
            <node id="143">-1.0,0.0,-0.5</node>
            <node id="144">-1.0,-1.0,-0.25</node>
            <node id="145">1.0,0.0,-0.5</node>
            <node id="146">1.0,-1.0,-0.25</node>
            <node id="147">0.0,1.0,-0.5</node>
            <node id="148">1.0,1.0,-0.25</node>
            <node id="149">-1.0,1.0,-0.25</node>
            <node id="150">0.0,-1.0,0.0</node>
            <node id="151">-1.0,0.0,0.0</node>
            <node id="152">1.0,0.0,0.0</node>
            <node id="153">0.0,1.0,0.0</node>
<!-- ... 105 like lines cut -->
        </Nodes>
        <Elements type="hex8" mat="3" name="top_layer_elements">
            <elem id="77">134,161,173,162,163,174,179,175</elem>
            <elem id="78">163,174,179,175,144,169,178,170</elem>
            <elem id="79">161,142,164,173,174,165,176,179</elem>
            <elem id="80">174,165,176,179,169,155,171,178</elem>
            <elem id="81">162,173,166,143,175,179,177,168</elem>
            <elem id="82">175,179,177,168,170,178,172,156</elem>
            <elem id="83">173,164,154,166,179,176,167,177</elem>
            <elem id="84">179,176,167,177,178,171,160,172</elem>
            <elem id="85">144,169,178,170,180,188,193,189</elem>
            <elem id="86">180,188,193,189,138,184,192,185</elem>
            <elem id="87">169,155,171,178,188,181,190,193</elem>
            <elem id="88">188,181,190,193,184,150,186,192</elem>
            <elem id="89">170,178,172,156,189,193,191,183</elem>
            <elem id="90">189,193,191,183,185,192,187,151</elem>
            <elem id="91">178,171,160,172,193,190,182,191</elem>
            <elem id="92">193,190,182,191,192,186,159,187</elem>
            <elem id="93">142,194,202,164,165,203,207,176</elem>
            <elem id="94">165,203,207,176,155,199,206,171</elem>
            <elem id="95">194,135,195,202,203,196,204,207</elem>
            <elem id="96">203,196,204,207,199,146,200,206</elem>
<!-- ... 44 like lines cut -->
        </Elements>
        <Nodes name="top_cube_nodes">
            <node id="259">-1.0,-1.0,2.5</node>
            <node id="260">-1.0,1.0,0.5</node>
            <node id="261">-1.0,-1.0,0.5</node>
            <node id="262">-1.0,1.0,2.5</node>
            <node id="263">1.0,1.0,0.5</node>
            <node id="264">1.0,1.0,2.5</node>
            <node id="265">1.0,-1.0,0.5</node>
            <node id="266">1.0,-1.0,2.5</node>
        </Nodes>
        <Elements type="tri3" mat="4" name="top_cube_elements">
            <elem id="141">259,260,261</elem>
            <elem id="142">262,263,260</elem>
            <elem id="143">264,265,263</elem>
            <elem id="144">266,261,265</elem>
            <elem id="145">263,261,260</elem>
            <elem id="146">262,266,264</elem>
            <elem id="147">259,262,260</elem>
            <elem id="148">262,264,263</elem>
            <elem id="149">264,266,265</elem>
            <elem id="150">266,259,261</elem>
            <elem id="151">263,265,261</elem>
            <elem id="152">262,259,266</elem>
        </Elements>
        <NodeSet name="bottom_layer_to_bottom_cube_nodes">
            <node id="9"></node>
            <node id="10"></node>
            <node id="11"></node>
            <node id="12"></node>
            <node id="17"></node>
            <node id="18"></node>
            <node id="20"></node>
            <node id="22"></node>
            <node id="29"></node>
            <node id="36"></node>
            <node id="37"></node>
            <node id="39"></node>
            <node id="41"></node>
            <node id="48"></node>
            <node id="69"></node>
            <node id="70"></node>
            <node id="72"></node>
            <node id="93"></node>
            <node id="97"></node>
            <node id="94"></node>
<!-- ... 5 like lines cut -->
        </NodeSet>
        <NodeSet name="top_layer_to_top_cube_nodes">
            <node id="137"></node>
            <node id="138"></node>
            <node id="139"></node>
            <node id="140"></node>
            <node id="149"></node>
            <node id="150"></node>
            <node id="151"></node>
            <node id="152"></node>
            <node id="158"></node>
            <node id="183"></node>
            <node id="184"></node>
            <node id="185"></node>
            <node id="186"></node>
            <node id="191"></node>
            <node id="209"></node>
            <node id="210"></node>
            <node id="211"></node>
            <node id="215"></node>
            <node id="233"></node>
            <node id="234"></node>
<!-- ... 5 like lines cut -->
        </NodeSet>
        <Surface name="layer_top_surface">
            <quad4 id="1">13,59,67,60</quad4>
            <quad4 id="2">59,25,61,67</quad4>
            <quad4 id="3">25,85,91,61</quad4>
            <quad4 id="4">85,14,86,91</quad4>
            <quad4 id="5">60,67,62,26</quad4>
            <quad4 id="6">67,61,34,62</quad4>
            <quad4 id="7">61,91,87,34</quad4>
            <quad4 id="8">91,86,27,87</quad4>
            <quad4 id="9">26,62,115,109</quad4>
            <quad4 id="10">62,34,110,115</quad4>
            <quad4 id="11">34,87,132,110</quad4>
            <quad4 id="12">87,27,128,132</quad4>
            <quad4 id="13">109,115,111,16</quad4>
            <quad4 id="14">115,110,28,111</quad4>
            <quad4 id="15">110,132,129,28</quad4>
            <quad4 id="16">132,128,15,129</quad4>
        </Surface>
        <Surface name="layer_bottom_surface">
            <quad4 id="1">137,220,226,218</quad4>
            <quad4 id="2">220,147,219,226</quad4>
            <quad4 id="3">147,243,247,219</quad4>
            <quad4 id="4">243,136,242,247</quad4>
            <quad4 id="5">218,226,166,143</quad4>
            <quad4 id="6">226,219,154,166</quad4>
            <quad4 id="7">219,247,197,154</quad4>
            <quad4 id="8">247,242,145,197</quad4>
            <quad4 id="9">143,166,173,162</quad4>
            <quad4 id="10">166,154,164,173</quad4>
            <quad4 id="11">154,197,202,164</quad4>
            <quad4 id="12">197,145,195,202</quad4>
            <quad4 id="13">162,173,161,134</quad4>
            <quad4 id="14">173,164,142,161</quad4>
            <quad4 id="15">164,202,194,142</quad4>
            <quad4 id="16">202,195,135,194</quad4>
        </Surface>
        <SurfacePair name="layers_surface_pair">
            <primary>layer_bottom_surface</primary>
            <secondary>layer_top_surface</secondary>
        </SurfacePair>
    </Mesh>
    <MeshDomains>
        <ShellDomain name="bottom_cube_elements" mat="bottom_cube_material">
            <shell_normal_nodal>1</shell_normal_nodal>
        </ShellDomain>
        <SolidDomain name="bottom_layer_elements" mat="bottom_layer_material"></SolidDomain>
        <SolidDomain name="top_layer_elements" mat="top_layer_material"></SolidDomain>
        <ShellDomain name="top_cube_elements" mat="top_cube_material">
            <shell_normal_nodal>1</shell_normal_nodal>
        </ShellDomain>
    </MeshDomains>
    <MeshData></MeshData>
    <Initial></Initial>
    <Boundary>
        <bc name="bottom_layer_2_bottom_connector" type="rigid" node_set="bottom_layer_to_bottom_cube_nodes">
            <rb>1</rb>
        </bc>
        <bc name="top_layer_2_top_connector" type="rigid" node_set="top_layer_to_top_cube_nodes">
            <rb>4</rb>
        </bc>
    </Boundary>
    <Rigid>
        <rigid_constraint name="bottom_cube_constraints" type="fix">
            <rb>1</rb>
            <dofs>Rx,Ry,Rz,Ru,Rv,Rw</dofs>
        </rigid_constraint>
        <rigid_constraint name="top_cube_constraints" type="fix">
            <rb>4</rb>
            <dofs>Rx,Ry,Ru,Rv,Rw</dofs>
        </rigid_constraint>
        <rigid_constraint name="top_cube_prescribed_force_z" type="force">
            <rb>4</rb>
            <dof>Rz</dof>
            <value lc="2">1</value>
            <load_type>0</load_type>
        </rigid_constraint>
    </Rigid>
    <Loads></Loads>
    <Contact>
        <contact name="layers_elastic_contact" type="sliding-elastic" surface_pair="layers_surface_pair">
            <laugon>0</laugon>
            <tolerance>0.2</tolerance>
            <gaptol>0</gaptol>
            <penalty>1</penalty>
            <auto_penalty>1</auto_penalty>
            <two_pass>1</two_pass>
            <symmetric_stiffness>0</symmetric_stiffness>
            <search_tol>0.01</search_tol>
            <search_radius>1</search_radius>
            <minaug>0</minaug>
            <maxaug>10</maxaug>
            <seg_up>0</seg_up>
            <fric_coeff>0</fric_coeff>
            <smooth_aug>0</smooth_aug>
            <node_reloc>0</node_reloc>
            <flip_primary>0</flip_primary>
            <flip_secondary>0</flip_secondary>
            <knmult>0</knmult>
            <update_penalty>0</update_penalty>
            <shell_bottom_primary>0</shell_bottom_primary>
            <shell_bottom_secondary>0</shell_bottom_secondary>
        </contact>
    </Contact>
    <Control>
        <analysis>STATIC</analysis>
        <time_steps>21</time_steps>
        <step_size>0.05</step_size>
        <solver>
            <max_refs>25</max_refs>
            <max_ups>0</max_ups>
            <diverge_reform>1</diverge_reform>
            <reform_each_time_step>1</reform_each_time_step>
            <dtol>0.01</dtol>
            <etol>0.1</etol>
            <rtol>0</rtol>
            <lstol>0.9</lstol>
            <min_residual>0.001</min_residual>
            <qnmethod>BROYDEN</qnmethod>
            <rhoi>-2</rhoi>
            <symmetric_stiffness>0</symmetric_stiffness>
        </solver>
        <time_stepper>
            <dtmin>0.001</dtmin>
            <dtmax lc="1"></dtmax>
            <max_retries>15</max_retries>
            <opt_iter>10</opt_iter>
        </time_stepper>
    </Control>
    <LoadData>
        <load_controller id="1" type="loadcurve">
            <interpolate>STEP</interpolate>
            <points>
                <point>0.05,1.0</point>
                <point>0.098,1.0</point>
                <point>0.145,1.0</point>
                <point>0.192,1.0</point>
                <point>0.24,1.0</point>
                <point>0.288,1.0</point>
                <point>0.335,1.0</point>
                <point>0.382,1.0</point>
                <point>0.43,1.0</point>
                <point>0.478,1.0</point>
                <point>0.525,1.0</point>
                <point>0.572,1.0</point>
                <point>0.62,1.0</point>
                <point>0.668,1.0</point>
                <point>0.715,1.0</point>
                <point>0.763,1.0</point>
                <point>0.81,1.0</point>
                <point>0.858,1.0</point>
                <point>0.905,1.0</point>
                <point>0.952,1.0</point>
                <point>1.0,1.0</point>
            </points>
        </load_controller>
        <load_controller id="2" type="loadcurve">
            <interpolate>LINEAR</interpolate>
            <points>
                <point>0.05,0.0</point>
                <point>0.098,-0.1</point>
                <point>0.145,-0.2</point>
                <point>0.192,-0.3</point>
                <point>0.24,-0.4</point>
                <point>0.288,-0.5</point>
                <point>0.335,-0.6</point>
                <point>0.382,-0.7</point>
                <point>0.43,-0.8</point>
                <point>0.478,-0.9</point>
                <point>0.525,-1.0</point>
                <point>0.572,-1.1</point>
                <point>0.62,-1.2</point>
                <point>0.668,-1.3</point>
                <point>0.715,-1.4</point>
                <point>0.763,-1.5</point>
                <point>0.81,-1.6</point>
                <point>0.858,-1.7</point>
                <point>0.905,-1.8</point>
                <point>0.952,-1.9</point>
                <point>1.0,-2.0</point>
            </points>
        </load_controller>
    </LoadData>
</febio_spec>
