<?xml version='1.0' encoding='utf-8'?>
<febio_spec version="3.0">
    <Module type="solid"></Module>
    <Globals>
        <Constants>
            <T>0</T>
            <R>0</R>
            <Fc>0</Fc>
        </Constants>
    </Globals>
    <Material>
        <material id="1" name="femur_material" type="rigid body">
            <density>1.132e-06</density>
            <center_of_mass>0,0,0</center_of_mass>
        </material>
        <material id="2" name="tibia_material" type="rigid body">
            <density>1.132e-06</density>
            <center_of_mass>0,0,0</center_of_mass>
        </material>
    </Material>
    <Mesh from="model_test_geometry.feb"></Mesh>
    <MeshDomains>
        <ShellDomain name="femur_elements" mat="femur_material">
            <shell_normal_nodal>1</shell_normal_nodal>
        </ShellDomain>
        <ShellDomain name="tibia_elements" mat="tibia_material">
            <shell_normal_nodal>1</shell_normal_nodal>
        </ShellDomain>
    </MeshDomains>
    <MeshData></MeshData>
    <Initial></Initial>
    <Boundary></Boundary>
    <Rigid>
        <rigid_connector name="knee_anterior_posterior" type="rigid cylindrical joint">
            <body_a>1</body_a>
            <body_b>2</body_b>
            <tolerance>0</tolerance>
            <gaptol>0.01</gaptol>
            <angtol>0.0001</angtol>
            <force_penalty>10000.0</force_penalty>
            <moment_penalty>30000000.0</moment_penalty>
            <joint_origin>0,0,0</joint_origin>
            <joint_axis>1,0,0</joint_axis>
            <transverse_axis>0,0,0</transverse_axis>
            <minaug>0</minaug>
            <maxaug>10</maxaug>
            <prescribed_translation>0</prescribed_translation>
            <translation>0</translation>
            <force>0</force>
            <prescribed_rotation>1.0</prescribed_rotation>
            <rotation lc="1">1</rotation>
            <moment>0</moment>
            <auto_penalty>0</auto_penalty>
        </rigid_connector>
    </Rigid>
    <Loads></Loads>
    <Contact></Contact>
    <LoadData>
        <load_controller id="1" type="loadcurve">
            <interpolate>LINEAR</interpolate>
            <points>
                <point>0.0,0.0</point>
            </points>
        </load_controller>
        <load_controller id="2" type="loadcurve">
            <interpolate>LINEAR</interpolate>
            <points>
                <point>0.0,0.0</point>
                <point>0.25,0.159</point>
                <point>0.5,0.635</point>
                <point>0.75,1.429</point>
                <point>1.0,2.541</point>
                <point>1.25,3.97</point>
                <point>1.5,5.717</point>
                <point>1.75,7.727</point>
                <point>2.0,9.763</point>
                <point>2.25,11.8</point>
                <point>2.5,13.836</point>
                <point>2.75,15.873</point>
                <point>3.0,17.909</point>
                <point>3.25,19.946</point>
                <point>3.5,21.982</point>
                <point>3.75,24.019</point>
                <point>4.0,26.055</point>
                <point>4.25,28.092</point>
                <point>4.5,30.128</point>
                <point>4.75,32.165</point>
                <point>5.0,34.201</point>
            </points>
        </load_controller>
        <load_controller id="3" type="loadcurve">
            <interpolate>LINEAR</interpolate>
            <points>
                <point>0.0,0.0</point>
                <point>0.25,0.152</point>
                <point>0.5,0.607</point>
                <point>0.75,1.367</point>
                <point>1.0,2.43</point>
                <point>1.25,3.797</point>
                <point>1.5,5.467</point>
                <point>1.75,7.411</point>
                <point>2.0,9.403</point>
                <point>2.25,11.394</point>
                <point>2.5,13.386</point>
                <point>2.75,15.377</point>
                <point>3.0,17.368</point>
                <point>3.25,19.36</point>
                <point>3.5,21.351</point>
                <point>3.75,23.343</point>
                <point>4.0,25.334</point>
                <point>4.25,27.326</point>
                <point>4.5,29.317</point>
                <point>4.75,31.308</point>
                <point>5.0,33.3</point>
            </points>
        </load_controller>
        <load_controller id="4" type="loadcurve">
            <interpolate>LINEAR</interpolate>
            <points>
                <point>0.0,0.0</point>
                <point>0.25,0.166</point>
                <point>0.5,0.664</point>
                <point>0.75,1.495</point>
                <point>1.0,2.657</point>
                <point>1.25,4.152</point>
                <point>1.5,5.978</point>
                <point>1.75,8.049</point>
                <point>2.0,10.131</point>
                <point>2.25,12.214</point>
                <point>2.5,14.296</point>
                <point>2.75,16.378</point>
                <point>3.0,18.461</point>
                <point>3.25,20.543</point>
                <point>3.5,22.626</point>
                <point>3.75,24.708</point>
                <point>4.0,26.791</point>
                <point>4.25,28.873</point>
                <point>4.5,30.956</point>
                <point>4.75,33.038</point>
                <point>5.0,35.121</point>
            </points>
        </load_controller>
        <load_controller id="5" type="loadcurve">
            <interpolate>LINEAR</interpolate>
            <points>
                <point>0.0,0.0</point>
                <point>0.25,0.191</point>
                <point>0.5,0.763</point>
                <point>0.75,1.716</point>
                <point>1.0,3.05</point>
                <point>1.25,4.766</point>
                <point>1.5,6.859</point>
                <point>1.75,9.09</point>
                <point>2.0,11.322</point>
                <point>2.25,13.553</point>
                <point>2.5,15.784</point>
                <point>2.75,18.016</point>
                <point>3.0,20.247</point>
                <point>3.25,22.478</point>
                <point>3.5,24.71</point>
                <point>3.75,26.941</point>
                <point>4.0,29.172</point>
                <point>4.25,31.403</point>
                <point>4.5,33.635</point>
                <point>4.75,35.866</point>
                <point>5.0,38.097</point>
            </points>
        </load_controller>
        <load_controller id="6" type="loadcurve">
            <interpolate>LINEAR</interpolate>
            <points>
                <point>0.0,0.0</point>
                <point>0.25,0.163</point>
                <point>0.5,0.654</point>
                <point>0.75,1.471</point>
                <point>1.0,2.615</point>
                <point>1.25,4.086</point>
                <point>1.5,5.883</point>
                <point>1.75,7.932</point>
                <point>2.0,9.998</point>
                <point>2.25,12.064</point>
                <point>2.5,14.13</point>
                <point>2.75,16.196</point>
                <point>3.0,18.261</point>
                <point>3.25,20.327</point>
                <point>3.5,22.393</point>
                <point>3.75,24.459</point>
                <point>4.0,26.525</point>
                <point>4.25,28.591</point>
                <point>4.5,30.657</point>
                <point>4.75,32.722</point>
                <point>5.0,34.788</point>
            </points>
        </load_controller>
        <load_controller id="7" type="loadcurve">
            <interpolate>LINEAR</interpolate>
            <points>
                <point>0.0,0.0</point>
                <point>0.25,0.17</point>
                <point>0.5,0.681</point>
                <point>0.75,1.533</point>
                <point>1.0,2.725</point>
                <point>1.25,4.258</point>
                <point>1.5,6.132</point>
                <point>1.75,8.235</point>
                <point>2.0,10.344</point>
                <point>2.25,12.453</point>
                <point>2.5,14.562</point>
                <point>2.75,16.671</point>
                <point>3.0,18.78</point>
                <point>3.25,20.889</point>
                <point>3.5,22.998</point>
                <point>3.75,25.107</point>
                <point>4.0,27.216</point>
                <point>4.25,29.325</point>
                <point>4.5,31.434</point>
                <point>4.75,33.543</point>
                <point>5.0,35.652</point>
            </points>
        </load_controller>
        <load_controller id="8" type="loadcurve">
            <interpolate>LINEAR</interpolate>
            <points>
                <point>0.0,0.0</point>
                <point>0.25,0.196</point>
                <point>0.5,0.782</point>
                <point>0.75,1.76</point>
                <point>1.0,3.129</point>
                <point>1.25,4.889</point>
                <point>1.5,7.03</point>
                <point>1.75,9.29</point>
                <point>2.0,11.55</point>
                <point>2.25,13.809</point>
                <point>2.5,16.069</point>
                <point>2.75,18.329</point>
                <point>3.0,20.589</point>
                <point>3.25,22.849</point>
                <point>3.5,25.108</point>
                <point>3.75,27.368</point>
                <point>4.0,29.628</point>
                <point>4.25,31.888</point>
                <point>4.5,34.147</point>
                <point>4.75,36.407</point>
                <point>5.0,38.667</point>
            </points>
        </load_controller>
        <load_controller id="9" type="loadcurve">
            <interpolate>LINEAR</interpolate>
            <points>
                <point>0.0,0.0</point>
                <point>0.25,0.156</point>
                <point>0.5,0.624</point>
                <point>0.75,1.404</point>
                <point>1.0,2.496</point>
                <point>1.25,3.9</point>
                <point>1.5,5.617</point>
                <point>1.75,7.601</point>
                <point>2.0,9.619</point>
                <point>2.25,11.638</point>
                <point>2.5,13.656</point>
                <point>2.75,15.675</point>
                <point>3.0,17.693</point>
                <point>3.25,19.712</point>
                <point>3.5,21.73</point>
                <point>3.75,23.749</point>
                <point>4.0,25.767</point>
                <point>4.25,27.786</point>
                <point>4.5,29.804</point>
                <point>4.75,31.823</point>
                <point>5.0,33.841</point>
            </points>
        </load_controller>
        <load_controller id="10" type="loadcurve">
            <interpolate>LINEAR</interpolate>
            <points>
                <point>0.0,0.0</point>
                <point>0.25,0.163</point>
                <point>0.5,0.651</point>
                <point>0.75,1.465</point>
                <point>1.0,2.605</point>
                <point>1.25,4.071</point>
                <point>1.5,5.862</point>
                <point>1.75,7.906</point>
                <point>2.0,9.968</point>
                <point>2.25,12.03</point>
                <point>2.5,14.092</point>
                <point>2.75,16.155</point>
                <point>3.0,18.217</point>
                <point>3.25,20.279</point>
                <point>3.5,22.341</point>
                <point>3.75,24.403</point>
                <point>4.0,26.465</point>
                <point>4.25,28.527</point>
                <point>4.5,30.589</point>
                <point>4.75,32.651</point>
                <point>5.0,34.714</point>
            </points>
        </load_controller>
        <load_controller id="11" type="loadcurve">
            <interpolate>LINEAR</interpolate>
            <points>
                <point>0.0,0.0</point>
                <point>0.25,0.186</point>
                <point>0.5,0.744</point>
                <point>0.75,1.674</point>
                <point>1.0,2.976</point>
                <point>1.25,4.65</point>
                <point>1.5,6.695</point>
                <point>1.75,8.898</point>
                <point>2.0,11.102</point>
                <point>2.25,13.306</point>
                <point>2.5,15.51</point>
                <point>2.75,17.714</point>
                <point>3.0,19.918</point>
                <point>3.25,22.122</point>
                <point>3.5,24.325</point>
                <point>3.75,26.529</point>
                <point>4.0,28.733</point>
                <point>4.25,30.937</point>
                <point>4.5,33.141</point>
                <point>4.75,35.345</point>
                <point>5.0,37.549</point>
            </points>
        </load_controller>
        <load_controller id="12" type="loadcurve">
            <interpolate>LINEAR</interpolate>
            <points>
                <point>0.0,0.0</point>
                <point>0.25,0.183</point>
                <point>0.5,0.731</point>
                <point>0.75,1.646</point>
                <point>1.0,2.925</point>
                <point>1.25,4.571</point>
                <point>1.5,6.582</point>
                <point>1.75,8.767</point>
                <point>2.0,10.953</point>
                <point>2.25,13.138</point>
                <point>2.5,15.323</point>
                <point>2.75,17.508</point>
                <point>3.0,19.693</point>
                <point>3.25,21.878</point>
                <point>3.5,24.063</point>
                <point>3.75,26.249</point>
                <point>4.0,28.434</point>
                <point>4.25,30.619</point>
                <point>4.5,32.804</point>
                <point>4.75,34.989</point>
                <point>5.0,37.174</point>
            </points>
        </load_controller>
        <load_controller id="13" type="loadcurve">
            <interpolate>LINEAR</interpolate>
            <points>
                <point>0.0,0.0</point>
                <point>0.25,0.158</point>
                <point>0.5,0.633</point>
                <point>0.75,1.423</point>
                <point>1.0,2.53</point>
                <point>1.25,3.954</point>
                <point>1.5,5.693</point>
                <point>1.75,7.697</point>
                <point>2.0,9.729</point>
                <point>2.25,11.761</point>
                <point>2.5,13.794</point>
                <point>2.75,15.826</point>
                <point>3.0,17.858</point>
                <point>3.25,19.89</point>
                <point>3.5,21.922</point>
                <point>3.75,23.955</point>
                <point>4.0,25.987</point>
                <point>4.25,28.019</point>
                <point>4.5,30.051</point>
                <point>4.75,32.084</point>
                <point>5.0,34.116</point>
            </points>
        </load_controller>
        <load_controller id="14" type="loadcurve">
            <interpolate>LINEAR</interpolate>
            <points>
                <point>0.0,0.0</point>
                <point>0.25,0.166</point>
                <point>0.5,0.663</point>
                <point>0.75,1.492</point>
                <point>1.0,2.652</point>
                <point>1.25,4.144</point>
                <point>1.5,5.968</point>
                <point>1.75,8.036</point>
                <point>2.0,10.116</point>
                <point>2.25,12.197</point>
                <point>2.5,14.277</point>
                <point>2.75,16.358</point>
                <point>3.0,18.439</point>
                <point>3.25,20.519</point>
                <point>3.5,22.6</point>
                <point>3.75,24.68</point>
                <point>4.0,26.761</point>
                <point>4.25,28.842</point>
                <point>4.5,30.922</point>
                <point>4.75,33.003</point>
                <point>5.0,35.083</point>
            </points>
        </load_controller>
        <load_controller id="15" type="loadcurve">
            <interpolate>LINEAR</interpolate>
            <points>
                <point>0.0,0.0</point>
                <point>0.25,0.222</point>
                <point>0.5,0.888</point>
                <point>0.75,1.998</point>
                <point>1.0,3.552</point>
                <point>1.25,5.549</point>
                <point>1.5,7.917</point>
                <point>1.75,10.325</point>
                <point>2.0,12.733</point>
                <point>2.25,15.14</point>
                <point>2.5,17.548</point>
                <point>2.75,19.956</point>
                <point>3.0,22.363</point>
                <point>3.25,24.771</point>
                <point>3.5,27.179</point>
                <point>3.75,29.586</point>
                <point>4.0,31.994</point>
                <point>4.25,34.402</point>
                <point>4.5,36.809</point>
                <point>4.75,39.217</point>
                <point>5.0,41.625</point>
            </points>
        </load_controller>
        <load_controller id="16" type="loadcurve">
            <interpolate>LINEAR</interpolate>
            <points>
                <point>0.0,0.0</point>
                <point>0.25,0.174</point>
                <point>0.5,0.697</point>
                <point>0.75,1.569</point>
                <point>1.0,2.79</point>
                <point>1.25,4.359</point>
                <point>1.5,6.276</point>
                <point>1.75,8.408</point>
                <point>2.0,10.541</point>
                <point>2.25,12.675</point>
                <point>2.5,14.809</point>
                <point>2.75,16.943</point>
                <point>3.0,19.077</point>
                <point>3.25,21.21</point>
                <point>3.5,23.344</point>
                <point>3.75,25.478</point>
                <point>4.0,27.612</point>
                <point>4.25,29.745</point>
                <point>4.5,31.879</point>
                <point>4.75,34.013</point>
                <point>5.0,36.147</point>
            </points>
        </load_controller>
        <load_controller id="17" type="loadcurve">
            <interpolate>LINEAR</interpolate>
            <points>
                <point>0.0,0.0</point>
                <point>0.25,0.2</point>
                <point>0.5,0.799</point>
                <point>0.75,1.797</point>
                <point>1.0,3.194</point>
                <point>1.25,4.991</point>
                <point>1.5,7.172</point>
                <point>1.75,9.455</point>
                <point>2.0,11.738</point>
                <point>2.25,14.022</point>
                <point>2.5,16.305</point>
                <point>2.75,18.588</point>
                <point>3.0,20.872</point>
                <point>3.25,23.155</point>
                <point>3.5,25.438</point>
                <point>3.75,27.722</point>
                <point>4.0,30.005</point>
                <point>4.25,32.289</point>
                <point>4.5,34.572</point>
                <point>4.75,36.855</point>
                <point>5.0,39.139</point>
            </points>
        </load_controller>
        <load_controller id="18" type="loadcurve">
            <interpolate>LINEAR</interpolate>
            <points>
                <point>0.0,0.0</point>
                <point>0.25,0.157</point>
                <point>0.5,0.627</point>
                <point>0.75,1.41</point>
                <point>1.0,2.507</point>
                <point>1.25,3.916</point>
                <point>1.5,5.64</point>
                <point>1.75,7.63</point>
                <point>2.0,9.653</point>
                <point>2.25,11.675</point>
                <point>2.5,13.698</point>
                <point>2.75,15.72</point>
                <point>3.0,17.743</point>
                <point>3.25,19.766</point>
                <point>3.5,21.788</point>
                <point>3.75,23.811</point>
                <point>4.0,25.834</point>
                <point>4.25,27.856</point>
                <point>4.5,29.879</point>
                <point>4.75,31.902</point>
                <point>5.0,33.924</point>
            </points>
        </load_controller>
        <load_controller id="19" type="loadcurve">
            <interpolate>LINEAR</interpolate>
            <points>
                <point>0.0,0.0</point>
                <point>0.25,0.178</point>
                <point>0.5,0.712</point>
                <point>0.75,1.601</point>
                <point>1.0,2.847</point>
                <point>1.25,4.448</point>
                <point>1.5,6.405</point>
                <point>1.75,8.56</point>
                <point>2.0,10.715</point>
                <point>2.25,12.871</point>
                <point>2.5,15.026</point>
                <point>2.75,17.181</point>
                <point>3.0,19.337</point>
                <point>3.25,21.492</point>
                <point>3.5,23.648</point>
                <point>3.75,25.803</point>
                <point>4.0,27.959</point>
                <point>4.25,30.114</point>
                <point>4.5,32.27</point>
                <point>4.75,34.425</point>
                <point>5.0,36.581</point>
            </points>
        </load_controller>
        <load_controller id="20" type="loadcurve">
            <interpolate>LINEAR</interpolate>
            <points>
                <point>0.0,0.0</point>
                <point>0.25,0.177</point>
                <point>0.5,0.709</point>
                <point>0.75,1.596</point>
                <point>1.0,2.838</point>
                <point>1.25,4.434</point>
                <point>1.5,6.385</point>
                <point>1.75,8.536</point>
                <point>2.0,10.688</point>
                <point>2.25,12.84</point>
                <point>2.5,14.992</point>
                <point>2.75,17.144</point>
                <point>3.0,19.296</point>
                <point>3.25,21.448</point>
                <point>3.5,23.6</point>
                <point>3.75,25.752</point>
                <point>4.0,27.904</point>
                <point>4.25,30.056</point>
                <point>4.5,32.208</point>
                <point>4.75,34.36</point>
                <point>5.0,36.513</point>
            </points>
        </load_controller>
        <load_controller id="21" type="loadcurve">
            <interpolate>LINEAR</interpolate>
            <points>
                <point>0.0,0.0</point>
                <point>0.25,0.222</point>
                <point>0.5,0.888</point>
                <point>0.75,1.999</point>
                <point>1.0,3.554</point>
                <point>1.25,5.552</point>
                <point>1.5,7.921</point>
                <point>1.75,10.329</point>
                <point>2.0,12.738</point>
                <point>2.25,15.146</point>
                <point>2.5,17.554</point>
                <point>2.75,19.963</point>
                <point>3.0,22.371</point>
                <point>3.25,24.779</point>
                <point>3.5,27.188</point>
                <point>3.75,29.596</point>
                <point>4.0,32.004</point>
                <point>4.25,34.413</point>
                <point>4.5,36.821</point>
                <point>4.75,39.229</point>
                <point>5.0,41.637</point>
            </points>
        </load_controller>
        <load_controller id="22" type="loadcurve">
            <interpolate>LINEAR</interpolate>
            <points>
                <point>0.0,0.0</point>
                <point>0.25,0.187</point>
                <point>0.5,0.748</point>
                <point>0.75,1.683</point>
                <point>1.0,2.992</point>
                <point>1.25,4.676</point>
                <point>1.5,6.731</point>
                <point>1.75,8.941</point>
                <point>2.0,11.151</point>
                <point>2.25,13.361</point>
                <point>2.5,15.571</point>
                <point>2.75,17.781</point>
                <point>3.0,19.991</point>
                <point>3.25,22.201</point>
                <point>3.5,24.411</point>
                <point>3.75,26.621</point>
                <point>4.0,28.831</point>
                <point>4.25,31.041</point>
                <point>4.5,33.251</point>
                <point>4.75,35.461</point>
                <point>5.0,37.671</point>
            </points>
        </load_controller>
        <load_controller id="23" type="loadcurve">
            <interpolate>LINEAR</interpolate>
            <points>
                <point>0.0,0.0</point>
                <point>0.25,0.17</point>
                <point>0.5,0.681</point>
                <point>0.75,1.532</point>
                <point>1.0,2.723</point>
                <point>1.25,4.255</point>
                <point>1.5,6.127</point>
                <point>1.75,8.229</point>
                <point>2.0,10.337</point>
                <point>2.25,12.446</point>
                <point>2.5,14.554</point>
                <point>2.75,16.662</point>
                <point>3.0,18.771</point>
                <point>3.25,20.879</point>
                <point>3.5,22.987</point>
                <point>3.75,25.095</point>
                <point>4.0,27.204</point>
                <point>4.25,29.312</point>
                <point>4.5,31.42</point>
                <point>4.75,33.528</point>
                <point>5.0,35.637</point>
            </points>
        </load_controller>
        <load_controller id="24" type="loadcurve">
            <interpolate>LINEAR</interpolate>
            <points>
                <point>0.0,0.0</point>
                <point>0.25,0.196</point>
                <point>0.5,0.782</point>
                <point>0.75,1.761</point>
                <point>1.0,3.13</point>
                <point>1.25,4.89</point>
                <point>1.5,7.032</point>
                <point>1.75,9.293</point>
                <point>2.0,11.553</point>
                <point>2.25,13.813</point>
                <point>2.5,16.073</point>
                <point>2.75,18.333</point>
                <point>3.0,20.593</point>
                <point>3.25,22.854</point>
                <point>3.5,25.114</point>
                <point>3.75,27.374</point>
                <point>4.0,29.634</point>
                <point>4.25,31.894</point>
                <point>4.5,34.154</point>
                <point>4.75,36.415</point>
                <point>5.0,38.675</point>
            </points>
        </load_controller>
        <load_controller id="25" type="loadcurve">
            <interpolate>LINEAR</interpolate>
            <points>
                <point>0.0,0.0</point>
                <point>0.25,0.213</point>
                <point>0.5,0.854</point>
                <point>0.75,1.921</point>
                <point>1.0,3.415</point>
                <point>1.25,5.335</point>
                <point>1.5,7.636</point>
                <point>1.75,9.996</point>
                <point>2.0,12.357</point>
                <point>2.25,14.718</point>
                <point>2.5,17.079</point>
                <point>2.75,19.439</point>
                <point>3.0,21.8</point>
                <point>3.25,24.161</point>
                <point>3.5,26.522</point>
                <point>3.75,28.882</point>
                <point>4.0,31.243</point>
                <point>4.25,33.604</point>
                <point>4.5,35.964</point>
                <point>4.75,38.325</point>
                <point>5.0,40.686</point>
            </points>
        </load_controller>
        <load_controller id="26" type="loadcurve">
            <interpolate>LINEAR</interpolate>
            <points>
                <point>0.0,0.0</point>
                <point>0.25,0.209</point>
                <point>0.5,0.835</point>
                <point>0.75,1.879</point>
                <point>1.0,3.34</point>
                <point>1.25,5.218</point>
                <point>1.5,7.479</point>
                <point>1.75,9.814</point>
                <point>2.0,12.149</point>
                <point>2.25,14.484</point>
                <point>2.5,16.818</point>
                <point>2.75,19.153</point>
                <point>3.0,21.488</point>
                <point>3.25,23.822</point>
                <point>3.5,26.157</point>
                <point>3.75,28.492</point>
                <point>4.0,30.826</point>
                <point>4.25,33.161</point>
                <point>4.5,35.496</point>
                <point>4.75,37.83</point>
                <point>5.0,40.165</point>
            </points>
        </load_controller>
        <load_controller id="27" type="loadcurve">
            <interpolate>LINEAR</interpolate>
            <points>
                <point>0.0,0.0</point>
                <point>0.25,0.165</point>
                <point>0.5,0.659</point>
                <point>0.75,1.483</point>
                <point>1.0,2.637</point>
                <point>1.25,4.121</point>
                <point>1.5,5.934</point>
                <point>1.75,7.994</point>
                <point>2.0,10.069</point>
                <point>2.25,12.144</point>
                <point>2.5,14.218</point>
                <point>2.75,16.293</point>
                <point>3.0,18.368</point>
                <point>3.25,20.443</point>
                <point>3.5,22.517</point>
                <point>3.75,24.592</point>
                <point>4.0,26.667</point>
                <point>4.25,28.741</point>
                <point>4.5,30.816</point>
                <point>4.75,32.891</point>
                <point>5.0,34.966</point>
            </points>
        </load_controller>
        <load_controller id="28" type="loadcurve">
            <interpolate>LINEAR</interpolate>
            <points>
                <point>0.0,0.0</point>
                <point>0.25,0.187</point>
                <point>0.5,0.75</point>
                <point>0.75,1.687</point>
                <point>1.0,3.0</point>
                <point>1.25,4.687</point>
                <point>1.5,6.748</point>
                <point>1.75,8.961</point>
                <point>2.0,11.174</point>
                <point>2.25,13.386</point>
                <point>2.5,15.599</point>
                <point>2.75,17.812</point>
                <point>3.0,20.025</point>
                <point>3.25,22.238</point>
                <point>3.5,24.45</point>
                <point>3.75,26.663</point>
                <point>4.0,28.876</point>
                <point>4.25,31.089</point>
                <point>4.5,33.301</point>
                <point>4.75,35.514</point>
                <point>5.0,37.727</point>
            </points>
        </load_controller>
        <load_controller id="29" type="loadcurve">
            <interpolate>LINEAR</interpolate>
            <points>
                <point>0.0,0.0</point>
                <point>0.25,0.218</point>
                <point>0.5,0.874</point>
                <point>0.75,1.966</point>
                <point>1.0,3.496</point>
                <point>1.25,5.462</point>
                <point>1.5,7.804</point>
                <point>1.75,10.192</point>
                <point>2.0,12.581</point>
                <point>2.25,14.97</point>
                <point>2.5,17.359</point>
                <point>2.75,19.747</point>
                <point>3.0,22.136</point>
                <point>3.25,24.525</point>
                <point>3.5,26.913</point>
                <point>3.75,29.302</point>
                <point>4.0,31.691</point>
                <point>4.25,34.08</point>
                <point>4.5,36.468</point>
                <point>4.75,38.857</point>
                <point>5.0,41.246</point>
            </points>
        </load_controller>
        <load_controller id="30" type="loadcurve">
            <interpolate>LINEAR</interpolate>
            <points>
                <point>0.0,0.0</point>
                <point>0.25,0.202</point>
                <point>0.5,0.81</point>
                <point>0.75,1.822</point>
                <point>1.0,3.239</point>
                <point>1.25,5.061</point>
                <point>1.5,7.267</point>
                <point>1.75,9.566</point>
                <point>2.0,11.865</point>
                <point>2.25,14.164</point>
                <point>2.5,16.464</point>
                <point>2.75,18.763</point>
                <point>3.0,21.062</point>
                <point>3.25,23.361</point>
                <point>3.5,25.661</point>
                <point>3.75,27.96</point>
                <point>4.0,30.259</point>
                <point>4.25,32.558</point>
                <point>4.5,34.858</point>
                <point>4.75,37.157</point>
                <point>5.0,39.456</point>
            </points>
        </load_controller>
        <load_controller id="31" type="loadcurve">
            <interpolate>LINEAR</interpolate>
            <points>
                <point>0.0,0.0</point>
                <point>0.25,0.199</point>
                <point>0.5,0.795</point>
                <point>0.75,1.789</point>
                <point>1.0,3.18</point>
                <point>1.25,4.969</point>
                <point>1.5,7.141</point>
                <point>1.75,9.419</point>
                <point>2.0,11.697</point>
                <point>2.25,13.976</point>
                <point>2.5,16.254</point>
                <point>2.75,18.532</point>
                <point>3.0,20.81</point>
                <point>3.25,23.089</point>
                <point>3.5,25.367</point>
                <point>3.75,27.645</point>
                <point>4.0,29.924</point>
                <point>4.25,32.202</point>
                <point>4.5,34.48</point>
                <point>4.75,36.758</point>
                <point>5.0,39.037</point>
            </points>
        </load_controller>
        <load_controller id="32" type="loadcurve">
            <interpolate>LINEAR</interpolate>
            <points>
                <point>0.0,0.0</point>
                <point>0.25,0.171</point>
                <point>0.5,0.683</point>
                <point>0.75,1.538</point>
                <point>1.0,2.734</point>
                <point>1.25,4.272</point>
                <point>1.5,6.151</point>
                <point>1.75,8.258</point>
                <point>2.0,10.37</point>
                <point>2.25,12.483</point>
                <point>2.5,14.595</point>
                <point>2.75,16.708</point>
                <point>3.0,18.82</point>
                <point>3.25,20.932</point>
                <point>3.5,23.045</point>
                <point>3.75,25.157</point>
                <point>4.0,27.27</point>
                <point>4.25,29.382</point>
                <point>4.5,31.494</point>
                <point>4.75,33.607</point>
                <point>5.0,35.719</point>
            </points>
        </load_controller>
        <load_controller id="33" type="loadcurve">
            <interpolate>LINEAR</interpolate>
            <points>
                <point>0.0,0.0</point>
                <point>0.25,0.215</point>
                <point>0.5,0.86</point>
                <point>0.75,1.935</point>
                <point>1.0,3.441</point>
                <point>1.25,5.376</point>
                <point>1.5,7.69</point>
                <point>1.75,10.06</point>
                <point>2.0,12.429</point>
                <point>2.25,14.799</point>
                <point>2.5,17.169</point>
                <point>2.75,19.539</point>
                <point>3.0,21.908</point>
                <point>3.25,24.278</point>
                <point>3.5,26.648</point>
                <point>3.75,29.018</point>
                <point>4.0,31.388</point>
                <point>4.25,33.757</point>
                <point>4.5,36.127</point>
                <point>4.75,38.497</point>
                <point>5.0,40.867</point>
            </points>
        </load_controller>
        <load_controller id="34" type="loadcurve">
            <interpolate>LINEAR</interpolate>
            <points>
                <point>0.0,0.0</point>
                <point>0.25,0.212</point>
                <point>0.5,0.848</point>
                <point>0.75,1.908</point>
                <point>1.0,3.392</point>
                <point>1.25,5.3</point>
                <point>1.5,7.59</point>
                <point>1.75,9.943</point>
                <point>2.0,12.296</point>
                <point>2.25,14.649</point>
                <point>2.5,17.002</point>
                <point>2.75,19.355</point>
                <point>3.0,21.708</point>
                <point>3.25,24.061</point>
                <point>3.5,26.414</point>
                <point>3.75,28.767</point>
                <point>4.0,31.12</point>
                <point>4.25,33.473</point>
                <point>4.5,35.826</point>
                <point>4.75,38.179</point>
                <point>5.0,40.532</point>
            </points>
        </load_controller>
        <load_controller id="35" type="loadcurve">
            <interpolate>LINEAR</interpolate>
            <points>
                <point>0.0,0.0</point>
                <point>0.25,0.182</point>
                <point>0.5,0.726</point>
                <point>0.75,1.634</point>
                <point>1.0,2.905</point>
                <point>1.25,4.54</point>
                <point>1.5,6.537</point>
                <point>1.75,8.715</point>
                <point>2.0,10.893</point>
                <point>2.25,13.07</point>
                <point>2.5,15.248</point>
                <point>2.75,17.426</point>
                <point>3.0,19.603</point>
                <point>3.25,21.781</point>
                <point>3.5,23.959</point>
                <point>3.75,26.136</point>
                <point>4.0,28.314</point>
                <point>4.25,30.492</point>
                <point>4.5,32.669</point>
                <point>4.75,34.847</point>
                <point>5.0,37.025</point>
            </points>
        </load_controller>
        <load_controller id="36" type="loadcurve">
            <interpolate>LINEAR</interpolate>
            <points>
                <point>0.0,0.0</point>
                <point>0.25,0.228</point>
                <point>0.5,0.913</point>
                <point>0.75,2.054</point>
                <point>1.0,3.652</point>
                <point>1.25,5.706</point>
                <point>1.5,8.12</point>
                <point>1.75,10.561</point>
                <point>2.0,13.003</point>
                <point>2.25,15.444</point>
                <point>2.5,17.885</point>
                <point>2.75,20.327</point>
                <point>3.0,22.768</point>
                <point>3.25,25.209</point>
                <point>3.5,27.651</point>
                <point>3.75,30.092</point>
                <point>4.0,32.534</point>
                <point>4.25,34.975</point>
                <point>4.5,37.416</point>
                <point>4.75,39.858</point>
                <point>5.0,42.299</point>
            </points>
        </load_controller>
        <load_controller id="37" type="loadcurve">
            <interpolate>LINEAR</interpolate>
            <points>
                <point>0.0,0.0</point>
                <point>0.25,0.193</point>
                <point>0.5,0.774</point>
                <point>0.75,1.741</point>
                <point>1.0,3.095</point>
                <point>1.25,4.835</point>
                <point>1.5,6.956</point>
                <point>1.75,9.203</point>
                <point>2.0,11.45</point>
                <point>2.25,13.698</point>
                <point>2.5,15.945</point>
                <point>2.75,18.193</point>
                <point>3.0,20.44</point>
                <point>3.25,22.687</point>
                <point>3.5,24.935</point>
                <point>3.75,27.182</point>
                <point>4.0,29.43</point>
                <point>4.25,31.677</point>
                <point>4.5,33.924</point>
                <point>4.75,36.172</point>
                <point>5.0,38.419</point>
            </points>
        </load_controller>
        <load_controller id="38" type="loadcurve">
            <interpolate>LINEAR</interpolate>
            <points>
                <point>0.0,0.0</point>
                <point>0.25,0.192</point>
                <point>0.5,0.769</point>
                <point>0.75,1.73</point>
                <point>1.0,3.075</point>
                <point>1.25,4.804</point>
                <point>1.5,6.913</point>
                <point>1.75,9.153</point>
                <point>2.0,11.393</point>
                <point>2.25,13.633</point>
                <point>2.5,15.873</point>
                <point>2.75,18.114</point>
                <point>3.0,20.354</point>
                <point>3.25,22.594</point>
                <point>3.5,24.834</point>
                <point>3.75,27.074</point>
                <point>4.0,29.315</point>
                <point>4.25,31.555</point>
                <point>4.5,33.795</point>
                <point>4.75,36.035</point>
                <point>5.0,38.275</point>
            </points>
        </load_controller>
        <load_controller id="39" type="loadcurve">
            <interpolate>LINEAR</interpolate>
            <points>
                <point>0.0,0.0</point>
                <point>0.25,0.138</point>
                <point>0.5,0.552</point>
                <point>0.75,1.243</point>
                <point>1.0,2.209</point>
                <point>1.25,3.452</point>
                <point>1.5,4.971</point>
                <point>1.75,6.713</point>
                <point>2.0,8.474</point>
                <point>2.25,10.235</point>
                <point>2.5,11.997</point>
                <point>2.75,13.758</point>
                <point>3.0,15.52</point>
                <point>3.25,17.281</point>
                <point>3.5,19.043</point>
                <point>3.75,20.804</point>
                <point>4.0,22.566</point>
                <point>4.25,24.327</point>
                <point>4.5,26.089</point>
                <point>4.75,27.85</point>
                <point>5.0,29.611</point>
            </points>
        </load_controller>
        <load_controller id="40" type="loadcurve">
            <interpolate>LINEAR</interpolate>
            <points>
                <point>0.0,0.0</point>
                <point>0.25,0.141</point>
                <point>0.5,0.563</point>
                <point>0.75,1.267</point>
                <point>1.0,2.252</point>
                <point>1.25,3.519</point>
                <point>1.5,5.068</point>
                <point>1.75,6.832</point>
                <point>2.0,8.61</point>
                <point>2.25,10.389</point>
                <point>2.5,12.167</point>
                <point>2.75,13.946</point>
                <point>3.0,15.725</point>
                <point>3.25,17.503</point>
                <point>3.5,19.282</point>
                <point>3.75,21.06</point>
                <point>4.0,22.839</point>
                <point>4.25,24.617</point>
                <point>4.5,26.396</point>
                <point>4.75,28.174</point>
                <point>5.0,29.953</point>
            </points>
        </load_controller>
        <load_controller id="41" type="loadcurve">
            <interpolate>LINEAR</interpolate>
            <points>
                <point>0.0,0.0</point>
                <point>0.25,0.154</point>
                <point>0.5,0.615</point>
                <point>0.75,1.383</point>
                <point>1.0,2.459</point>
                <point>1.25,3.843</point>
                <point>1.5,5.534</point>
                <point>1.75,7.392</point>
                <point>2.0,9.25</point>
                <point>2.25,11.109</point>
                <point>2.5,12.968</point>
                <point>2.75,14.826</point>
                <point>3.0,16.685</point>
                <point>3.25,18.543</point>
                <point>3.5,20.402</point>
                <point>3.75,22.26</point>
                <point>4.0,24.119</point>
                <point>4.25,25.977</point>
                <point>4.5,27.836</point>
                <point>4.75,29.694</point>
                <point>5.0,31.553</point>
            </points>
        </load_controller>
        <load_controller id="42" type="loadcurve">
            <interpolate>LINEAR</interpolate>
            <points>
                <point>0.0,0.0</point>
                <point>0.25,0.138</point>
                <point>0.5,0.552</point>
                <point>0.75,1.242</point>
                <point>1.0,2.208</point>
                <point>1.25,3.45</point>
                <point>1.5,4.968</point>
                <point>1.75,6.709</point>
                <point>2.0,8.469</point>
                <point>2.25,10.23</point>
                <point>2.5,11.991</point>
                <point>2.75,13.752</point>
                <point>3.0,15.513</point>
                <point>3.25,17.274</point>
                <point>3.5,19.035</point>
                <point>3.75,20.796</point>
                <point>4.0,22.557</point>
                <point>4.25,24.318</point>
                <point>4.5,26.078</point>
                <point>4.75,27.839</point>
                <point>5.0,29.6</point>
            </points>
        </load_controller>
        <load_controller id="43" type="loadcurve">
            <interpolate>LINEAR</interpolate>
            <points>
                <point>0.0,0.0</point>
                <point>0.25,0.141</point>
                <point>0.5,0.564</point>
                <point>0.75,1.268</point>
                <point>1.0,2.254</point>
                <point>1.25,3.522</point>
                <point>1.5,5.072</point>
                <point>1.75,6.837</point>
                <point>2.0,8.616</point>
                <point>2.25,10.395</point>
                <point>2.5,12.174</point>
                <point>2.75,13.954</point>
                <point>3.0,15.733</point>
                <point>3.25,17.512</point>
                <point>3.5,19.291</point>
                <point>3.75,21.071</point>
                <point>4.0,22.85</point>
                <point>4.25,24.629</point>
                <point>4.5,26.408</point>
                <point>4.75,28.187</point>
                <point>5.0,29.967</point>
            </points>
        </load_controller>
        <load_controller id="44" type="loadcurve">
            <interpolate>LINEAR</interpolate>
            <points>
                <point>0.0,0.0</point>
                <point>0.25,0.158</point>
                <point>0.5,0.631</point>
                <point>0.75,1.42</point>
                <point>1.0,2.525</point>
                <point>1.25,3.945</point>
                <point>1.5,5.681</point>
                <point>1.75,7.564</point>
                <point>2.0,9.447</point>
                <point>2.25,11.33</point>
                <point>2.5,13.213</point>
                <point>2.75,15.096</point>
                <point>3.0,16.979</point>
                <point>3.25,18.862</point>
                <point>3.5,20.745</point>
                <point>3.75,22.628</point>
                <point>4.0,24.511</point>
                <point>4.25,26.394</point>
                <point>4.5,28.277</point>
                <point>4.75,30.16</point>
                <point>5.0,32.043</point>
            </points>
        </load_controller>
        <load_controller id="45" type="loadcurve">
            <interpolate>LINEAR</interpolate>
            <points>
                <point>0.0,0.0</point>
                <point>0.25,0.132</point>
                <point>0.5,0.53</point>
                <point>0.75,1.192</point>
                <point>1.0,2.12</point>
                <point>1.25,3.312</point>
                <point>1.5,4.769</point>
                <point>1.75,6.46</point>
                <point>2.0,8.185</point>
                <point>2.25,9.91</point>
                <point>2.5,11.635</point>
                <point>2.75,13.361</point>
                <point>3.0,15.086</point>
                <point>3.25,16.811</point>
                <point>3.5,18.537</point>
                <point>3.75,20.262</point>
                <point>4.0,21.987</point>
                <point>4.25,23.713</point>
                <point>4.5,25.438</point>
                <point>4.75,27.163</point>
                <point>5.0,28.889</point>
            </points>
        </load_controller>
        <load_controller id="46" type="loadcurve">
            <interpolate>LINEAR</interpolate>
            <points>
                <point>0.0,0.0</point>
                <point>0.25,0.161</point>
                <point>0.5,0.645</point>
                <point>0.75,1.452</point>
                <point>1.0,2.581</point>
                <point>1.25,4.032</point>
                <point>1.5,5.805</point>
                <point>1.75,7.708</point>
                <point>2.0,9.612</point>
                <point>2.25,11.516</point>
                <point>2.5,13.42</point>
                <point>2.75,15.323</point>
                <point>3.0,17.227</point>
                <point>3.25,19.131</point>
                <point>3.5,21.034</point>
                <point>3.75,22.938</point>
                <point>4.0,24.842</point>
                <point>4.25,26.746</point>
                <point>4.5,28.649</point>
                <point>4.75,30.553</point>
                <point>5.0,32.457</point>
            </points>
        </load_controller>
        <load_controller id="47" type="loadcurve">
            <interpolate>LINEAR</interpolate>
            <points>
                <point>0.0,0.0</point>
                <point>0.25,0.145</point>
                <point>0.5,0.58</point>
                <point>0.75,1.306</point>
                <point>1.0,2.322</point>
                <point>1.25,3.628</point>
                <point>1.5,5.224</point>
                <point>1.75,7.022</point>
                <point>2.0,8.828</point>
                <point>2.25,10.634</point>
                <point>2.5,12.44</point>
                <point>2.75,14.245</point>
                <point>3.0,16.051</point>
                <point>3.25,17.857</point>
                <point>3.5,19.662</point>
                <point>3.75,21.468</point>
                <point>4.0,23.274</point>
                <point>4.25,25.08</point>
                <point>4.5,26.885</point>
                <point>4.75,28.691</point>
                <point>5.0,30.497</point>
            </points>
        </load_controller>
        <load_controller id="48" type="loadcurve">
            <interpolate>LINEAR</interpolate>
            <points>
                <point>0.0,0.0</point>
                <point>0.25,0.131</point>
                <point>0.5,0.524</point>
                <point>0.75,1.178</point>
                <point>1.0,2.094</point>
                <point>1.25,3.272</point>
                <point>1.5,4.712</point>
                <point>1.75,6.387</point>
                <point>2.0,8.102</point>
                <point>2.25,9.817</point>
                <point>2.5,11.531</point>
                <point>2.75,13.246</point>
                <point>3.0,14.961</point>
                <point>3.25,16.676</point>
                <point>3.5,18.391</point>
                <point>3.75,20.106</point>
                <point>4.0,21.821</point>
                <point>4.25,23.536</point>
                <point>4.5,25.251</point>
                <point>4.75,26.966</point>
                <point>5.0,28.681</point>
            </points>
        </load_controller>
        <load_controller id="49" type="loadcurve">
            <interpolate>LINEAR</interpolate>
            <points>
                <point>0.0,0.0</point>
                <point>0.25,0.159</point>
                <point>0.5,0.638</point>
                <point>0.75,1.435</point>
                <point>1.0,2.551</point>
                <point>1.25,3.985</point>
                <point>1.5,5.738</point>
                <point>1.75,7.631</point>
                <point>2.0,9.523</point>
                <point>2.25,11.416</point>
                <point>2.5,13.309</point>
                <point>2.75,15.201</point>
                <point>3.0,17.094</point>
                <point>3.25,18.987</point>
                <point>3.5,20.879</point>
                <point>3.75,22.772</point>
                <point>4.0,24.665</point>
                <point>4.25,26.557</point>
                <point>4.5,28.45</point>
                <point>4.75,30.343</point>
                <point>5.0,32.235</point>
            </points>
        </load_controller>
        <load_controller id="50" type="loadcurve">
            <interpolate>LINEAR</interpolate>
            <points>
                <point>0.0,0.0</point>
                <point>0.25,0.134</point>
                <point>0.5,0.536</point>
                <point>0.75,1.205</point>
                <point>1.0,2.143</point>
                <point>1.25,3.348</point>
                <point>1.5,4.822</point>
                <point>1.75,6.526</point>
                <point>2.0,8.261</point>
                <point>2.25,9.996</point>
                <point>2.5,11.73</point>
                <point>2.75,13.465</point>
                <point>3.0,15.2</point>
                <point>3.25,16.935</point>
                <point>3.5,18.67</point>
                <point>3.75,20.404</point>
                <point>4.0,22.139</point>
                <point>4.25,23.874</point>
                <point>4.5,25.609</point>
                <point>4.75,27.344</point>
                <point>5.0,29.079</point>
            </points>
        </load_controller>
        <load_controller id="51" type="loadcurve">
            <interpolate>LINEAR</interpolate>
            <points>
                <point>0.0,0.0</point>
                <point>0.25,0.163</point>
                <point>0.5,0.653</point>
                <point>0.75,1.468</point>
                <point>1.0,2.611</point>
                <point>1.25,4.079</point>
                <point>1.5,5.871</point>
                <point>1.75,7.786</point>
                <point>2.0,9.7</point>
                <point>2.25,11.615</point>
                <point>2.5,13.53</point>
                <point>2.75,15.445</point>
                <point>3.0,17.359</point>
                <point>3.25,19.274</point>
                <point>3.5,21.189</point>
                <point>3.75,23.104</point>
                <point>4.0,25.018</point>
                <point>4.25,26.933</point>
                <point>4.5,28.848</point>
                <point>4.75,30.763</point>
                <point>5.0,32.677</point>
            </points>
        </load_controller>
        <load_controller id="52" type="loadcurve">
            <interpolate>LINEAR</interpolate>
            <points>
                <point>0.0,0.0</point>
                <point>0.25,0.147</point>
                <point>0.5,0.589</point>
                <point>0.75,1.325</point>
                <point>1.0,2.355</point>
                <point>1.25,3.68</point>
                <point>1.5,5.3</point>
                <point>1.75,7.114</point>
                <point>2.0,8.933</point>
                <point>2.25,10.752</point>
                <point>2.5,12.571</point>
                <point>2.75,14.389</point>
                <point>3.0,16.208</point>
                <point>3.25,18.027</point>
                <point>3.5,19.846</point>
                <point>3.75,21.665</point>
                <point>4.0,23.483</point>
                <point>4.25,25.302</point>
                <point>4.5,27.121</point>
                <point>4.75,28.94</point>
                <point>5.0,30.759</point>
            </points>
        </load_controller>
        <load_controller id="53" type="loadcurve">
            <interpolate>LINEAR</interpolate>
            <points>
                <point>0.0,0.0</point>
                <point>0.25,0.145</point>
                <point>0.5,0.58</point>
                <point>0.75,1.304</point>
                <point>1.0,2.319</point>
                <point>1.25,3.623</point>
                <point>1.5,5.218</point>
                <point>1.75,7.015</point>
                <point>2.0,8.819</point>
                <point>2.25,10.624</point>
                <point>2.5,12.429</point>
                <point>2.75,14.233</point>
                <point>3.0,16.038</point>
                <point>3.25,17.843</point>
                <point>3.5,19.647</point>
                <point>3.75,21.452</point>
                <point>4.0,23.256</point>
                <point>4.25,25.061</point>
                <point>4.5,26.866</point>
                <point>4.75,28.67</point>
                <point>5.0,30.475</point>
            </points>
        </load_controller>
        <load_controller id="54" type="loadcurve">
            <interpolate>LINEAR</interpolate>
            <points>
                <point>0.0,0.0</point>
                <point>0.25,0.151</point>
                <point>0.5,0.602</point>
                <point>0.75,1.355</point>
                <point>1.0,2.409</point>
                <point>1.25,3.764</point>
                <point>1.5,5.42</point>
                <point>1.75,7.258</point>
                <point>2.0,9.097</point>
                <point>2.25,10.936</point>
                <point>2.5,12.776</point>
                <point>2.75,14.615</point>
                <point>3.0,16.454</point>
                <point>3.25,18.294</point>
                <point>3.5,20.133</point>
                <point>3.75,21.972</point>
                <point>4.0,23.812</point>
                <point>4.25,25.651</point>
                <point>4.5,27.491</point>
                <point>4.75,29.33</point>
                <point>5.0,31.169</point>
            </points>
        </load_controller>
        <load_controller id="55" type="loadcurve">
            <interpolate>LINEAR</interpolate>
            <points>
                <point>0.0,0.0</point>
                <point>0.25,0.149</point>
                <point>0.5,0.596</point>
                <point>0.75,1.341</point>
                <point>1.0,2.385</point>
                <point>1.25,3.726</point>
                <point>1.5,5.365</point>
                <point>1.75,7.192</point>
                <point>2.0,9.022</point>
                <point>2.25,10.852</point>
                <point>2.5,12.682</point>
                <point>2.75,14.512</point>
                <point>3.0,16.342</point>
                <point>3.25,18.172</point>
                <point>3.5,20.002</point>
                <point>3.75,21.832</point>
                <point>4.0,23.662</point>
                <point>4.25,25.492</point>
                <point>4.5,27.322</point>
                <point>4.75,29.152</point>
                <point>5.0,30.982</point>
            </points>
        </load_controller>
        <load_controller id="56" type="loadcurve">
            <interpolate>LINEAR</interpolate>
            <points>
                <point>0.0,0.0</point>
                <point>0.25,0.166</point>
                <point>0.5,0.665</point>
                <point>0.75,1.497</point>
                <point>1.0,2.661</point>
                <point>1.25,4.157</point>
                <point>1.5,5.981</point>
                <point>1.75,7.914</point>
                <point>2.0,9.847</point>
                <point>2.25,11.78</point>
                <point>2.5,13.713</point>
                <point>2.75,15.646</point>
                <point>3.0,17.579</point>
                <point>3.25,19.512</point>
                <point>3.5,21.445</point>
                <point>3.75,23.378</point>
                <point>4.0,25.311</point>
                <point>4.25,27.244</point>
                <point>4.5,29.177</point>
                <point>4.75,31.11</point>
                <point>5.0,33.043</point>
            </points>
        </load_controller>
        <load_controller id="57" type="loadcurve">
            <interpolate>LINEAR</interpolate>
            <points>
                <point>0.0,0.0</point>
                <point>0.25,0.142</point>
                <point>0.5,0.569</point>
                <point>0.75,1.279</point>
                <point>1.0,2.274</point>
                <point>1.25,3.553</point>
                <point>1.5,5.117</point>
                <point>1.75,6.892</point>
                <point>2.0,8.679</point>
                <point>2.25,10.467</point>
                <point>2.5,12.254</point>
                <point>2.75,14.041</point>
                <point>3.0,15.828</point>
                <point>3.25,17.615</point>
                <point>3.5,19.402</point>
                <point>3.75,21.19</point>
                <point>4.0,22.977</point>
                <point>4.25,24.764</point>
                <point>4.5,26.551</point>
                <point>4.75,28.338</point>
                <point>5.0,30.125</point>
            </points>
        </load_controller>
        <load_controller id="58" type="loadcurve">
            <interpolate>LINEAR</interpolate>
            <points>
                <point>0.0,0.0</point>
                <point>0.25,0.138</point>
                <point>0.5,0.554</point>
                <point>0.75,1.246</point>
                <point>1.0,2.216</point>
                <point>1.25,3.462</point>
                <point>1.5,4.986</point>
                <point>1.75,6.731</point>
                <point>2.0,8.495</point>
                <point>2.25,10.259</point>
                <point>2.5,12.023</point>
                <point>2.75,13.787</point>
                <point>3.0,15.552</point>
                <point>3.25,17.316</point>
                <point>3.5,19.08</point>
                <point>3.75,20.844</point>
                <point>4.0,22.608</point>
                <point>4.25,24.372</point>
                <point>4.5,26.136</point>
                <point>4.75,27.9</point>
                <point>5.0,29.664</point>
            </points>
        </load_controller>
        <load_controller id="59" type="loadcurve">
            <interpolate>LINEAR</interpolate>
            <points>
                <point>0.0,0.0</point>
                <point>0.25,0.169</point>
                <point>0.5,0.676</point>
                <point>0.75,1.521</point>
                <point>1.0,2.704</point>
                <point>1.25,4.225</point>
                <point>1.5,6.075</point>
                <point>1.75,8.024</point>
                <point>2.0,9.973</point>
                <point>2.25,11.922</point>
                <point>2.5,13.871</point>
                <point>2.75,15.819</point>
                <point>3.0,17.768</point>
                <point>3.25,19.717</point>
                <point>3.5,21.666</point>
                <point>3.75,23.615</point>
                <point>4.0,25.563</point>
                <point>4.25,27.512</point>
                <point>4.5,29.461</point>
                <point>4.75,31.41</point>
                <point>5.0,33.359</point>
            </points>
        </load_controller>
        <load_controller id="60" type="loadcurve">
            <interpolate>LINEAR</interpolate>
            <points>
                <point>0.0,0.0</point>
                <point>0.25,0.153</point>
                <point>0.5,0.611</point>
                <point>0.75,1.375</point>
                <point>1.0,2.444</point>
                <point>1.25,3.819</point>
                <point>1.5,5.5</point>
                <point>1.75,7.352</point>
                <point>2.0,9.205</point>
                <point>2.25,11.058</point>
                <point>2.5,12.91</point>
                <point>2.75,14.763</point>
                <point>3.0,16.616</point>
                <point>3.25,18.469</point>
                <point>3.5,20.322</point>
                <point>3.75,22.174</point>
                <point>4.0,24.027</point>
                <point>4.25,25.88</point>
                <point>4.5,27.733</point>
                <point>4.75,29.586</point>
                <point>5.0,31.439</point>
            </points>
        </load_controller>
        <load_controller id="61" type="loadcurve">
            <interpolate>LINEAR</interpolate>
            <points>
                <point>0.0,0.0</point>
                <point>0.25,0.16</point>
                <point>0.5,0.64</point>
                <point>0.75,1.44</point>
                <point>1.0,2.559</point>
                <point>1.25,3.999</point>
                <point>1.5,5.757</point>
                <point>1.75,7.653</point>
                <point>2.0,9.549</point>
                <point>2.25,11.445</point>
                <point>2.5,13.341</point>
                <point>2.75,15.237</point>
                <point>3.0,17.133</point>
                <point>3.25,19.029</point>
                <point>3.5,20.924</point>
                <point>3.75,22.82</point>
                <point>4.0,24.716</point>
                <point>4.25,26.612</point>
                <point>4.5,28.508</point>
                <point>4.75,30.404</point>
                <point>5.0,32.3</point>
            </points>
        </load_controller>
        <load_controller id="62" type="loadcurve">
            <interpolate>LINEAR</interpolate>
            <points>
                <point>0.0,0.0</point>
                <point>0.25,0.157</point>
                <point>0.5,0.628</point>
                <point>0.75,1.412</point>
                <point>1.0,2.511</point>
                <point>1.25,3.923</point>
                <point>1.5,5.649</point>
                <point>1.75,7.527</point>
                <point>2.0,9.405</point>
                <point>2.25,11.282</point>
                <point>2.5,13.16</point>
                <point>2.75,15.038</point>
                <point>3.0,16.916</point>
                <point>3.25,18.793</point>
                <point>3.5,20.671</point>
                <point>3.75,22.549</point>
                <point>4.0,24.427</point>
                <point>4.25,26.304</point>
                <point>4.5,28.182</point>
                <point>4.75,30.06</point>
                <point>5.0,31.938</point>
            </points>
        </load_controller>
        <load_controller id="63" type="loadcurve">
            <interpolate>LINEAR</interpolate>
            <points>
                <point>0.0,0.0</point>
                <point>0.25,0.134</point>
                <point>0.5,0.537</point>
                <point>0.75,1.207</point>
                <point>1.0,2.146</point>
                <point>1.25,3.354</point>
                <point>1.5,4.829</point>
                <point>1.75,6.536</point>
                <point>2.0,8.272</point>
                <point>2.25,10.008</point>
                <point>2.5,11.744</point>
                <point>2.75,13.48</point>
                <point>3.0,15.217</point>
                <point>3.25,16.953</point>
                <point>3.5,18.689</point>
                <point>3.75,20.425</point>
                <point>4.0,22.161</point>
                <point>4.25,23.898</point>
                <point>4.5,25.634</point>
                <point>4.75,27.37</point>
                <point>5.0,29.106</point>
            </points>
        </load_controller>
        <load_controller id="64" type="loadcurve">
            <interpolate>LINEAR</interpolate>
            <points>
                <point>0.0,0.0</point>
                <point>0.25,0.192</point>
                <point>0.5,0.768</point>
                <point>0.75,1.729</point>
                <point>1.0,3.074</point>
                <point>1.25,4.803</point>
                <point>1.5,6.849</point>
                <point>1.75,8.926</point>
                <point>2.0,11.004</point>
                <point>2.25,13.082</point>
                <point>2.5,15.159</point>
                <point>2.75,17.237</point>
                <point>3.0,19.315</point>
                <point>3.25,21.392</point>
                <point>3.5,23.47</point>
                <point>3.75,25.548</point>
                <point>4.0,27.625</point>
                <point>4.25,29.703</point>
                <point>4.5,31.781</point>
                <point>4.75,33.859</point>
                <point>5.0,35.936</point>
            </points>
        </load_controller>
        <load_controller id="65" type="loadcurve">
            <interpolate>LINEAR</interpolate>
            <points>
                <point>0.0,0.0</point>
                <point>0.25,0.16</point>
                <point>0.5,0.642</point>
                <point>0.75,1.444</point>
                <point>1.0,2.567</point>
                <point>1.25,4.011</point>
                <point>1.5,5.775</point>
                <point>1.75,7.674</point>
                <point>2.0,9.573</point>
                <point>2.25,11.472</point>
                <point>2.5,13.371</point>
                <point>2.75,15.269</point>
                <point>3.0,17.168</point>
                <point>3.25,19.067</point>
                <point>3.5,20.966</point>
                <point>3.75,22.865</point>
                <point>4.0,24.764</point>
                <point>4.25,26.662</point>
                <point>4.5,28.561</point>
                <point>4.75,30.46</point>
                <point>5.0,32.359</point>
            </points>
        </load_controller>
        <load_controller id="66" type="loadcurve">
            <interpolate>LINEAR</interpolate>
            <points>
                <point>0.0,0.0</point>
                <point>0.25,0.159</point>
                <point>0.5,0.638</point>
                <point>0.75,1.435</point>
                <point>1.0,2.551</point>
                <point>1.25,3.986</point>
                <point>1.5,5.739</point>
                <point>1.75,7.632</point>
                <point>2.0,9.525</point>
                <point>2.25,11.418</point>
                <point>2.5,13.311</point>
                <point>2.75,15.203</point>
                <point>3.0,17.096</point>
                <point>3.25,18.989</point>
                <point>3.5,20.882</point>
                <point>3.75,22.775</point>
                <point>4.0,24.668</point>
                <point>4.25,26.56</point>
                <point>4.5,28.453</point>
                <point>4.75,30.346</point>
                <point>5.0,32.239</point>
            </points>
        </load_controller>
        <load_controller id="67" type="loadcurve">
            <interpolate>LINEAR</interpolate>
            <points>
                <point>0.0,0.0</point>
                <point>0.25,0.178</point>
                <point>0.5,0.712</point>
                <point>0.75,1.603</point>
                <point>1.0,2.85</point>
                <point>1.25,4.453</point>
                <point>1.5,6.385</point>
                <point>1.75,8.386</point>
                <point>2.0,10.386</point>
                <point>2.25,12.387</point>
                <point>2.5,14.387</point>
                <point>2.75,16.388</point>
                <point>3.0,18.388</point>
                <point>3.25,20.389</point>
                <point>3.5,22.39</point>
                <point>3.75,24.39</point>
                <point>4.0,26.391</point>
                <point>4.25,28.391</point>
                <point>4.5,30.392</point>
                <point>4.75,32.392</point>
                <point>5.0,34.393</point>
            </points>
        </load_controller>
        <load_controller id="68" type="loadcurve">
            <interpolate>LINEAR</interpolate>
            <points>
                <point>0.0,0.0</point>
                <point>0.25,0.151</point>
                <point>0.5,0.605</point>
                <point>0.75,1.361</point>
                <point>1.0,2.42</point>
                <point>1.25,3.781</point>
                <point>1.5,5.445</point>
                <point>1.75,7.287</point>
                <point>2.0,9.131</point>
                <point>2.25,10.974</point>
                <point>2.5,12.818</point>
                <point>2.75,14.661</point>
                <point>3.0,16.505</point>
                <point>3.25,18.349</point>
                <point>3.5,20.192</point>
                <point>3.75,22.036</point>
                <point>4.0,23.879</point>
                <point>4.25,25.723</point>
                <point>4.5,27.566</point>
                <point>4.75,29.41</point>
                <point>5.0,31.254</point>
            </points>
        </load_controller>
        <load_controller id="69" type="loadcurve">
            <interpolate>LINEAR</interpolate>
            <points>
                <point>0.0,0.0</point>
                <point>0.25,0.148</point>
                <point>0.5,0.593</point>
                <point>0.75,1.335</point>
                <point>1.0,2.373</point>
                <point>1.25,3.708</point>
                <point>1.5,5.34</point>
                <point>1.75,7.162</point>
                <point>2.0,8.988</point>
                <point>2.25,10.814</point>
                <point>2.5,12.639</point>
                <point>2.75,14.465</point>
                <point>3.0,16.291</point>
                <point>3.25,18.116</point>
                <point>3.5,19.942</point>
                <point>3.75,21.768</point>
                <point>4.0,23.593</point>
                <point>4.25,25.419</point>
                <point>4.5,27.245</point>
                <point>4.75,29.071</point>
                <point>5.0,30.896</point>
            </points>
        </load_controller>
        <load_controller id="70" type="loadcurve">
            <interpolate>LINEAR</interpolate>
            <points>
                <point>0.0,0.0</point>
                <point>0.25,0.197</point>
                <point>0.5,0.789</point>
                <point>0.75,1.776</point>
                <point>1.0,3.157</point>
                <point>1.25,4.933</point>
                <point>1.5,7.017</point>
                <point>1.75,9.122</point>
                <point>2.0,11.228</point>
                <point>2.25,13.334</point>
                <point>2.5,15.439</point>
                <point>2.75,17.545</point>
                <point>3.0,19.651</point>
                <point>3.25,21.756</point>
                <point>3.5,23.862</point>
                <point>3.75,25.968</point>
                <point>4.0,28.074</point>
                <point>4.25,30.179</point>
                <point>4.5,32.285</point>
                <point>4.75,34.391</point>
                <point>5.0,36.496</point>
            </points>
        </load_controller>
        <load_controller id="71" type="loadcurve">
            <interpolate>LINEAR</interpolate>
            <points>
                <point>0.0,0.0</point>
                <point>0.25,0.178</point>
                <point>0.5,0.714</point>
                <point>0.75,1.605</point>
                <point>1.0,2.854</point>
                <point>1.25,4.459</point>
                <point>1.5,6.395</point>
                <point>1.75,8.397</point>
                <point>2.0,10.399</point>
                <point>2.25,12.401</point>
                <point>2.5,14.403</point>
                <point>2.75,16.405</point>
                <point>3.0,18.407</point>
                <point>3.25,20.409</point>
                <point>3.5,22.411</point>
                <point>3.75,24.413</point>
                <point>4.0,26.415</point>
                <point>4.25,28.417</point>
                <point>4.5,30.419</point>
                <point>4.75,32.421</point>
                <point>5.0,34.423</point>
            </points>
        </load_controller>
        <load_controller id="72" type="loadcurve">
            <interpolate>LINEAR</interpolate>
            <points>
                <point>0.0,0.0</point>
                <point>0.25,0.152</point>
                <point>0.5,0.607</point>
                <point>0.75,1.365</point>
                <point>1.0,2.427</point>
                <point>1.25,3.792</point>
                <point>1.5,5.46</point>
                <point>1.75,7.305</point>
                <point>2.0,9.151</point>
                <point>2.25,10.998</point>
                <point>2.5,12.844</point>
                <point>2.75,14.69</point>
                <point>3.0,16.536</point>
                <point>3.25,18.382</point>
                <point>3.5,20.228</point>
                <point>3.75,22.074</point>
                <point>4.0,23.921</point>
                <point>4.25,25.767</point>
                <point>4.5,27.613</point>
                <point>4.75,29.459</point>
                <point>5.0,31.305</point>
            </points>
        </load_controller>
        <load_controller id="73" type="loadcurve">
            <interpolate>LINEAR</interpolate>
            <points>
                <point>0.0,0.0</point>
                <point>0.25,0.183</point>
                <point>0.5,0.731</point>
                <point>0.75,1.645</point>
                <point>1.0,2.925</point>
                <point>1.25,4.57</point>
                <point>1.5,6.543</point>
                <point>1.75,8.57</point>
                <point>2.0,10.597</point>
                <point>2.25,12.623</point>
                <point>2.5,14.65</point>
                <point>2.75,16.677</point>
                <point>3.0,18.704</point>
                <point>3.25,20.731</point>
                <point>3.5,22.757</point>
                <point>3.75,24.784</point>
                <point>4.0,26.811</point>
                <point>4.25,28.838</point>
                <point>4.5,30.864</point>
                <point>4.75,32.891</point>
                <point>5.0,34.918</point>
            </points>
        </load_controller>
        <load_controller id="74" type="loadcurve">
            <interpolate>LINEAR</interpolate>
            <points>
                <point>0.0,0.0</point>
                <point>0.25,0.165</point>
                <point>0.5,0.66</point>
                <point>0.75,1.485</point>
                <point>1.0,2.64</point>
                <point>1.25,4.124</point>
                <point>1.5,5.934</point>
                <point>1.75,7.86</point>
                <point>2.0,9.785</point>
                <point>2.25,11.711</point>
                <point>2.5,13.636</point>
                <point>2.75,15.561</point>
                <point>3.0,17.487</point>
                <point>3.25,19.412</point>
                <point>3.5,21.337</point>
                <point>3.75,23.263</point>
                <point>4.0,25.188</point>
                <point>4.25,27.113</point>
                <point>4.5,29.039</point>
                <point>4.75,30.964</point>
                <point>5.0,32.89</point>
            </points>
        </load_controller>
        <load_controller id="75" type="loadcurve">
            <interpolate>LINEAR</interpolate>
            <points>
                <point>0.0,0.0</point>
                <point>0.25,0.164</point>
                <point>0.5,0.654</point>
                <point>0.75,1.472</point>
                <point>1.0,2.618</point>
                <point>1.25,4.09</point>
                <point>1.5,5.886</point>
                <point>1.75,7.804</point>
                <point>2.0,9.721</point>
                <point>2.25,11.638</point>
                <point>2.5,13.556</point>
                <point>2.75,15.473</point>
                <point>3.0,17.39</point>
                <point>3.25,19.308</point>
                <point>3.5,21.225</point>
                <point>3.75,23.142</point>
                <point>4.0,25.059</point>
                <point>4.25,26.977</point>
                <point>4.5,28.894</point>
                <point>4.75,30.811</point>
                <point>5.0,32.729</point>
            </points>
        </load_controller>
        <load_controller id="76" type="loadcurve">
            <interpolate>LINEAR</interpolate>
            <points>
                <point>0.0,0.0</point>
                <point>0.25,0.199</point>
                <point>0.5,0.797</point>
                <point>0.75,1.792</point>
                <point>1.0,3.186</point>
                <point>1.25,4.979</point>
                <point>1.5,7.075</point>
                <point>1.75,9.19</point>
                <point>2.0,11.305</point>
                <point>2.25,13.421</point>
                <point>2.5,15.536</point>
                <point>2.75,17.652</point>
                <point>3.0,19.767</point>
                <point>3.25,21.882</point>
                <point>3.5,23.998</point>
                <point>3.75,26.113</point>
                <point>4.0,28.228</point>
                <point>4.25,30.344</point>
                <point>4.5,32.459</point>
                <point>4.75,34.575</point>
                <point>5.0,36.69</point>
            </points>
        </load_controller>
        <load_controller id="77" type="loadcurve">
            <interpolate>LINEAR</interpolate>
            <points>
                <point>0.0,0.0</point>
                <point>0.25,0.168</point>
                <point>0.5,0.672</point>
                <point>0.75,1.512</point>
                <point>1.0,2.688</point>
                <point>1.25,4.2</point>
                <point>1.5,6.04</point>
                <point>1.75,7.983</point>
                <point>2.0,9.926</point>
                <point>2.25,11.869</point>
                <point>2.5,13.811</point>
                <point>2.75,15.754</point>
                <point>3.0,17.697</point>
                <point>3.25,19.64</point>
                <point>3.5,21.583</point>
                <point>3.75,23.526</point>
                <point>4.0,25.469</point>
                <point>4.25,27.412</point>
                <point>4.5,29.355</point>
                <point>4.75,31.298</point>
                <point>5.0,33.241</point>
            </points>
        </load_controller>
        <load_controller id="78" type="loadcurve">
            <interpolate>LINEAR</interpolate>
            <points>
                <point>0.0,0.0</point>
                <point>0.25,0.165</point>
                <point>0.5,0.662</point>
                <point>0.75,1.489</point>
                <point>1.0,2.648</point>
                <point>1.25,4.137</point>
                <point>1.5,5.952</point>
                <point>1.75,7.881</point>
                <point>2.0,9.809</point>
                <point>2.25,11.737</point>
                <point>2.5,13.666</point>
                <point>2.75,15.594</point>
                <point>3.0,17.522</point>
                <point>3.25,19.451</point>
                <point>3.5,21.379</point>
                <point>3.75,23.308</point>
                <point>4.0,25.236</point>
                <point>4.25,27.164</point>
                <point>4.5,29.093</point>
                <point>4.75,31.021</point>
                <point>5.0,32.949</point>
            </points>
        </load_controller>
        <load_controller id="79" type="loadcurve">
            <interpolate>LINEAR</interpolate>
            <points>
                <point>0.0,0.0</point>
                <point>0.25,0.2</point>
                <point>0.5,0.798</point>
                <point>0.75,1.796</point>
                <point>1.0,3.194</point>
                <point>1.25,4.99</point>
                <point>1.5,7.089</point>
                <point>1.75,9.207</point>
                <point>2.0,11.325</point>
                <point>2.25,13.443</point>
                <point>2.5,15.56</point>
                <point>2.75,17.678</point>
                <point>3.0,19.796</point>
                <point>3.25,21.914</point>
                <point>3.5,24.032</point>
                <point>3.75,26.149</point>
                <point>4.0,28.267</point>
                <point>4.25,30.385</point>
                <point>4.5,32.503</point>
                <point>4.75,34.621</point>
                <point>5.0,36.738</point>
            </points>
        </load_controller>
        <load_controller id="80" type="loadcurve">
            <interpolate>LINEAR</interpolate>
            <points>
                <point>0.0,0.0</point>
                <point>0.25,0.198</point>
                <point>0.5,0.79</point>
                <point>0.75,1.778</point>
                <point>1.0,3.162</point>
                <point>1.25,4.94</point>
                <point>1.5,7.025</point>
                <point>1.75,9.133</point>
                <point>2.0,11.24</point>
                <point>2.25,13.347</point>
                <point>2.5,15.454</point>
                <point>2.75,17.561</point>
                <point>3.0,19.668</point>
                <point>3.25,21.776</point>
                <point>3.5,23.883</point>
                <point>3.75,25.99</point>
                <point>4.0,28.097</point>
                <point>4.25,30.204</point>
                <point>4.5,32.312</point>
                <point>4.75,34.419</point>
                <point>5.0,36.526</point>
            </points>
        </load_controller>
        <load_controller id="81" type="loadcurve">
            <interpolate>LINEAR</interpolate>
            <points>
                <point>0.0,0.0</point>
                <point>0.25,0.18</point>
                <point>0.5,0.721</point>
                <point>0.75,1.621</point>
                <point>1.0,2.882</point>
                <point>1.25,4.504</point>
                <point>1.5,6.454</point>
                <point>1.75,8.466</point>
                <point>2.0,10.478</point>
                <point>2.25,12.491</point>
                <point>2.5,14.503</point>
                <point>2.75,16.515</point>
                <point>3.0,18.527</point>
                <point>3.25,20.539</point>
                <point>3.5,22.551</point>
                <point>3.75,24.563</point>
                <point>4.0,26.575</point>
                <point>4.25,28.587</point>
                <point>4.5,30.599</point>
                <point>4.75,32.611</point>
                <point>5.0,34.623</point>
            </points>
        </load_controller>
        <load_controller id="82" type="loadcurve">
            <interpolate>STEP</interpolate>
            <points>
                <point>0.0,1.0</point>
                <point>0.05,1.0</point>
                <point>0.1,1.0</point>
                <point>0.15000000000000002,1.0</point>
                <point>0.2,1.0</point>
                <point>0.25,1.0</point>
                <point>0.30000000000000004,1.0</point>
                <point>0.35000000000000003,1.0</point>
                <point>0.4,1.0</point>
                <point>0.45,1.0</point>
                <point>0.5,1.0</point>
                <point>0.55,1.0</point>
                <point>0.6000000000000001,1.0</point>
                <point>0.65,1.0</point>
                <point>0.7000000000000001,1.0</point>
                <point>0.75,1.0</point>
                <point>0.8,1.0</point>
                <point>0.8500000000000001,1.0</point>
                <point>0.9000000000000001,1.0</point>
                <point>0.9500000000000001,1.0</point>
                <point>1.0,1.0</point>
                <point>1.05,1.0</point>
            </points>
        </load_controller>
    </LoadData>
    <Discrete from="model_test_discrete.feb"></Discrete>
    <Control>
        <analysis>STATIC</analysis>
        <time_steps>21</time_steps>
        <step_size>0.05</step_size>
        <solver>
            <max_refs>25</max_refs>
            <max_ups>0</max_ups>
            <diverge_reform>1</diverge_reform>
            <reform_each_time_step>1</reform_each_time_step>
            <dtol>0.01</dtol>
            <etol>0.1</etol>
            <rtol>0</rtol>
            <lstol>0.9</lstol>
            <min_residual>0.001</min_residual>
            <qnmethod>BROYDEN</qnmethod>
            <rhoi>-2</rhoi>
            <symmetric_stiffness>0</symmetric_stiffness>
        </solver>
        <time_stepper>
            <dtmin>0.001</dtmin>
            <dtmax lc="82"></dtmax>
            <max_retries>30</max_retries>
            <opt_iter>10</opt_iter>
        </time_stepper>
    </Control>
</febio_spec>
